#======================================================================

# CRYSTAL DATA

#----------------------------------------------------------------------

data_VESTA_phase_1


_pd_phase_name                         ''
_cell_length_a                         18.06939
_cell_length_b                         9.03470
_cell_length_c                         9.03470
_cell_angle_alpha                      90
_cell_angle_beta                       90
_cell_angle_gamma                      90
_symmetry_space_group_name_H-M         'P 1'
_symmetry_Int_Tables_number            1

loop_
_symmetry_equiv_pos_as_xyz
   'x, y, z'

loop_
   _atom_site_label
   _atom_site_occupancy
   _atom_site_fract_x
   _atom_site_fract_y
   _atom_site_fract_z
   _atom_site_adp_type
   _atom_site_B_iso_or_equiv
   _atom_site_type_symbol
   Co1        1.0     0.125000      0.250000      0.250000     Biso  1.000000 Co
   Co2        1.0     0.375000      0.750000      0.250000     Biso  1.000000 Co
   Co3        1.0     0.125000      0.750000      0.750000     Biso  1.000000 Co
   Co4        1.0     0.375000      0.250000      0.750000     Biso  1.000000 Co
   Co5        1.0     0.625000      0.250000      0.250000     Biso  1.000000 Co
   Co6        1.0     0.875000      0.750000      0.250000     Biso  1.000000 Co
   Co7        1.0     0.625000      0.750000      0.750000     Biso  1.000000 Co
   Co8        1.0     0.875000      0.250000      0.750000     Biso  1.000000 Co
   Rh         1.0     0.375000      0.750000      0.750000     Biso  1.000000 Rh
   Co10       1.0     0.125000      0.250000      0.750000     Biso  1.000000 Co
   Co11       1.0     0.375000      0.250000      0.250000     Biso  1.000000 Co
   Co12       1.0     0.125000      0.750000      0.250000     Biso  1.000000 Co
   Co13       1.0     0.875000      0.750000      0.750000     Biso  1.000000 Co
   Co14       1.0     0.625000      0.250000      0.750000     Biso  1.000000 Co
   Co15       1.0     0.875000      0.250000      0.250000     Biso  1.000000 Co
   Co16       1.0     0.625000      0.750000      0.250000     Biso  1.000000 Co
   Sb1        1.0     0.000000      0.333000      0.157000     Biso  1.000000 Sb
   Sb2        1.0     0.000000      0.667000      0.843000     Biso  1.000000 Sb
   Sb3        1.0     0.000000      0.667000      0.157000     Biso  1.000000 Sb
   Sb4        1.0     0.000000      0.333000      0.843000     Biso  1.000000 Sb
   Sb5        1.0     0.078500      0.000000      0.333000     Biso  1.000000 Sb
   Sb6        1.0     0.421500      0.000000      0.667000     Biso  1.000000 Sb
   Sb7        1.0     0.421500      0.000000      0.333000     Biso  1.000000 Sb
   Sb8        1.0     0.078500      0.000000      0.667000     Biso  1.000000 Sb
   Sb9        1.0     0.166500      0.157000      0.000000     Biso  1.000000 Sb
   Sb10       1.0     0.333500      0.843000      0.000000     Biso  1.000000 Sb
   Sb11       1.0     0.166500      0.843000      0.000000     Biso  1.000000 Sb
   Sb12       1.0     0.333500      0.157000      0.000000     Biso  1.000000 Sb
   Sb13       1.0     0.500000      0.333000      0.157000     Biso  1.000000 Sb
   Sb14       1.0     0.500000      0.667000      0.843000     Biso  1.000000 Sb
   Sb15       1.0     0.500000      0.667000      0.157000     Biso  1.000000 Sb
   Sb16       1.0     0.500000      0.333000      0.843000     Biso  1.000000 Sb
   Sb17       1.0     0.578500      0.000000      0.333000     Biso  1.000000 Sb
   Sb18       1.0     0.921500      0.000000      0.667000     Biso  1.000000 Sb
   Sb19       1.0     0.921500      0.000000      0.333000     Biso  1.000000 Sb
   Sb20       1.0     0.578500      0.000000      0.667000     Biso  1.000000 Sb
   Sb21       1.0     0.666500      0.157000      0.000000     Biso  1.000000 Sb
   Sb22       1.0     0.833500      0.843000      0.000000     Biso  1.000000 Sb
   Sb23       1.0     0.666500      0.843000      0.000000     Biso  1.000000 Sb
   Sb24       1.0     0.833500      0.157000      0.000000     Biso  1.000000 Sb
   Sb25       1.0     0.250000      0.833000      0.657000     Biso  1.000000 Sb
   Sb26       1.0     0.250000      0.167000      0.343000     Biso  1.000000 Sb
   Sb27       1.0     0.250000      0.167000      0.657000     Biso  1.000000 Sb
   Sb28       1.0     0.250000      0.833000      0.343000     Biso  1.000000 Sb
   Sb29       1.0     0.328500      0.500000      0.833000     Biso  1.000000 Sb
   Sb30       1.0     0.171500      0.500000      0.167000     Biso  1.000000 Sb
   Sb31       1.0     0.171500      0.500000      0.833000     Biso  1.000000 Sb
   Sb32       1.0     0.328500      0.500000      0.167000     Biso  1.000000 Sb
   Sb33       1.0     0.416500      0.657000      0.500000     Biso  1.000000 Sb
   Sb34       1.0     0.083500      0.343000      0.500000     Biso  1.000000 Sb
   Sb35       1.0     0.416500      0.343000      0.500000     Biso  1.000000 Sb
   Sb36       1.0     0.083500      0.657000      0.500000     Biso  1.000000 Sb
   Sb37       1.0     0.750000      0.833000      0.657000     Biso  1.000000 Sb
   Sb38       1.0     0.750000      0.167000      0.343000     Biso  1.000000 Sb
   Sb39       1.0     0.750000      0.167000      0.657000     Biso  1.000000 Sb
   Sb40       1.0     0.750000      0.833000      0.343000     Biso  1.000000 Sb
   Sb41       1.0     0.828500      0.500000      0.833000     Biso  1.000000 Sb
   Sb42       1.0     0.671500      0.500000      0.167000     Biso  1.000000 Sb
   Sb43       1.0     0.671500      0.500000      0.833000     Biso  1.000000 Sb
   Sb44       1.0     0.828500      0.500000      0.167000     Biso  1.000000 Sb
   Sb45       1.0     0.916500      0.657000      0.500000     Biso  1.000000 Sb
   Sb46       1.0     0.583500      0.343000      0.500000     Biso  1.000000 Sb
   Sb47       1.0     0.916500      0.343000      0.500000     Biso  1.000000 Sb
   Sb48       1.0     0.583500      0.657000      0.500000     Biso  1.000000 Sb
